examples/data/enwl/lv-network-models/network_15/Feeder_3/Loads.dss
New Load.LOAD1 Phases=1 Bus1=122.2 kV=0.23 kW=1 PF=0.95
New Load.LOAD2 Phases=1 Bus1=128.3 kV=0.23 kW=1 PF=0.95
New Load.LOAD3 Phases=1 Bus1=129.1 kV=0.23 kW=1 PF=0.95
New Load.LOAD4 Phases=1 Bus1=235.1 kV=0.23 kW=1 PF=0.95
New Load.LOAD5 Phases=1 Bus1=247.1 kV=0.23 kW=1 PF=0.95
New Load.LOAD6 Phases=1 Bus1=677.2 kV=0.23 kW=1 PF=0.95
New Load.LOAD7 Phases=1 Bus1=700.2 kV=0.23 kW=1 PF=0.95
New Load.LOAD8 Phases=1 Bus1=720.2 kV=0.23 kW=1 PF=0.95
New Load.LOAD9 Phases=1 Bus1=959.3 kV=0.23 kW=1 PF=0.95
New Load.LOAD10 Phases=1 Bus1=968.1 kV=0.23 kW=1 PF=0.95
New Load.LOAD11 Phases=1 Bus1=1042.3 kV=0.23 kW=1 PF=0.95
New Load.LOAD12 Phases=1 Bus1=1064.2 kV=0.23 kW=1 PF=0.95
New Load.LOAD13 Phases=1 Bus1=1065.1 kV=0.23 kW=1 PF=0.95
New Load.LOAD14 Phases=1 Bus1=1139.3 kV=0.23 kW=1 PF=0.95
New Load.LOAD15 Phases=1 Bus1=1140.2 kV=0.23 kW=1 PF=0.95
New Load.LOAD16 Phases=1 Bus1=1156.3 kV=0.23 kW=1 PF=0.95
New Load.LOAD17 Phases=1 Bus1=1158.1 kV=0.23 kW=1 PF=0.95
New Load.LOAD18 Phases=1 Bus1=1198.1 kV=0.23 kW=1 PF=0.95
New Load.LOAD19 Phases=1 Bus1=1199.2 kV=0.23 kW=1 PF=0.95
New Load.LOAD20 Phases=1 Bus1=1236.1 kV=0.23 kW=1 PF=0.95
New Load.LOAD21 Phases=1 Bus1=1272.1 kV=0.23 kW=1 PF=0.95
New Load.LOAD22 Phases=1 Bus1=1305.2 kV=0.23 kW=1 PF=0.95
New Load.LOAD23 Phases=1 Bus1=1311.2 kV=0.23 kW=1 PF=0.95
New Load.LOAD24 Phases=1 Bus1=1312.2 kV=0.23 kW=1 PF=0.95
New Load.LOAD25 Phases=1 Bus1=1340.1 kV=0.23 kW=1 PF=0.95
New Load.LOAD26 Phases=1 Bus1=1341.1 kV=0.23 kW=1 PF=0.95
New Load.LOAD27 Phases=1 Bus1=1346.2 kV=0.23 kW=1 PF=0.95
New Load.LOAD28 Phases=1 Bus1=1347.2 kV=0.23 kW=1 PF=0.95
New Load.LOAD29 Phases=1 Bus1=1354.2 kV=0.23 kW=1 PF=0.95
New Load.LOAD30 Phases=1 Bus1=1375.2 kV=0.23 kW=1 PF=0.95
New Load.LOAD31 Phases=1 Bus1=1376.3 kV=0.23 kW=1 PF=0.95
New Load.LOAD32 Phases=1 Bus1=1379.2 kV=0.23 kW=1 PF=0.95
New Load.LOAD33 Phases=1 Bus1=1410.2 kV=0.23 kW=1 PF=0.95
New Load.LOAD34 Phases=1 Bus1=1412.2 kV=0.23 kW=1 PF=0.95
New Load.LOAD35 Phases=1 Bus1=1419.3 kV=0.23 kW=1 PF=0.95
New Load.LOAD36 Phases=1 Bus1=1432.3 kV=0.23 kW=1 PF=0.95
New Load.LOAD37 Phases=1 Bus1=1434.3 kV=0.23 kW=1 PF=0.95
New Load.LOAD38 Phases=1 Bus1=1490.1 kV=0.23 kW=1 PF=0.95
New Load.LOAD39 Phases=1 Bus1=1517.2 kV=0.23 kW=1 PF=0.95
New Load.LOAD40 Phases=1 Bus1=1532.3 kV=0.23 kW=1 PF=0.95
New Load.LOAD41 Phases=1 Bus1=1549.3 kV=0.23 kW=1 PF=0.95
New Load.LOAD42 Phases=1 Bus1=1619.3 kV=0.23 kW=1 PF=0.95
New Load.LOAD43 Phases=1 Bus1=1637.1 kV=0.23 kW=1 PF=0.95
New Load.LOAD44 Phases=1 Bus1=1652.2 kV=0.23 kW=1 PF=0.95
New Load.LOAD45 Phases=1 Bus1=1653.1 kV=0.23 kW=1 PF=0.95
New Load.LOAD46 Phases=1 Bus1=1731.1 kV=0.23 kW=1 PF=0.95
New Load.LOAD47 Phases=1 Bus1=1740.2 kV=0.23 kW=1 PF=0.95
New Load.LOAD48 Phases=1 Bus1=1741.3 kV=0.23 kW=1 PF=0.95
New Load.LOAD49 Phases=1 Bus1=1756.3 kV=0.23 kW=1 PF=0.95
New Load.LOAD50 Phases=1 Bus1=1780.2 kV=0.23 kW=1 PF=0.95
New Load.LOAD51 Phases=1 Bus1=1795.1 kV=0.23 kW=1 PF=0.95
New Load.LOAD52 Phases=1 Bus1=1860.1 kV=0.23 kW=1 PF=0.95
New Load.LOAD53 Phases=1 Bus1=1871.3 kV=0.23 kW=1 PF=0.95
New Load.LOAD54 Phases=1 Bus1=1901.2 kV=0.23 kW=1 PF=0.95
New Load.LOAD55 Phases=1 Bus1=1913.1 kV=0.23 kW=1 PF=0.95
New Load.LOAD56 Phases=1 Bus1=1914.2 kV=0.23 kW=1 PF=0.95
New Load.LOAD57 Phases=1 Bus1=1984.3 kV=0.23 kW=1 PF=0.95
New Load.LOAD58 Phases=1 Bus1=1985.3 kV=0.23 kW=1 PF=0.95
New Load.LOAD59 Phases=1 Bus1=1986.2 kV=0.23 kW=1 PF=0.95
New Load.LOAD60 Phases=1 Bus1=2003.2 kV=0.23 kW=1 PF=0.95
New Load.LOAD61 Phases=1 Bus1=2014.1 kV=0.23 kW=1 PF=0.95
New Load.LOAD62 Phases=1 Bus1=2026.1 kV=0.23 kW=1 PF=0.95
New Load.LOAD63 Phases=1 Bus1=2075.3 kV=0.23 kW=1 PF=0.95
New Load.LOAD64 Phases=1 Bus1=2077.3 kV=0.23 kW=1 PF=0.95
New Load.LOAD65 Phases=1 Bus1=2078.3 kV=0.23 kW=1 PF=0.95
New Load.LOAD66 Phases=1 Bus1=2096.3 kV=0.23 kW=1 PF=0.95
New Load.LOAD67 Phases=1 Bus1=2101.1 kV=0.23 kW=1 PF=0.95
New Load.LOAD68 Phases=1 Bus1=2111.1 kV=0.23 kW=1 PF=0.95
New Load.LOAD69 Phases=1 Bus1=2117.3 kV=0.23 kW=1 PF=0.95
New Load.LOAD70 Phases=1 Bus1=2119.3 kV=0.23 kW=1 PF=0.95
New Load.LOAD71 Phases=1 Bus1=2120.2 kV=0.23 kW=1 PF=0.95
New Load.LOAD72 Phases=1 Bus1=2121.1 kV=0.23 kW=1 PF=0.95
New Load.LOAD73 Phases=1 Bus1=2155.1 kV=0.23 kW=1 PF=0.95
New Load.LOAD74 Phases=1 Bus1=2174.1 kV=0.23 kW=1 PF=0.95
New Load.LOAD75 Phases=1 Bus1=2175.3 kV=0.23 kW=1 PF=0.95
New Load.LOAD76 Phases=1 Bus1=2180.2 kV=0.23 kW=1 PF=0.95
New Load.LOAD77 Phases=1 Bus1=2195.3 kV=0.23 kW=1 PF=0.95
New Load.LOAD78 Phases=1 Bus1=2198.2 kV=0.23 kW=1 PF=0.95
New Load.LOAD79 Phases=1 Bus1=2200.2 kV=0.23 kW=1 PF=0.95
New Load.LOAD80 Phases=1 Bus1=2203.1 kV=0.23 kW=1 PF=0.95
New Load.LOAD81 Phases=1 Bus1=2250.3 kV=0.23 kW=1 PF=0.95
New Load.LOAD82 Phases=1 Bus1=2271.2 kV=0.23 kW=1 PF=0.95
New Load.LOAD83 Phases=1 Bus1=2292.1 kV=0.23 kW=1 PF=0.95
New Load.LOAD84 Phases=1 Bus1=2296.1 kV=0.23 kW=1 PF=0.95
New Load.LOAD85 Phases=1 Bus1=2318.2 kV=0.23 kW=1 PF=0.95
New Load.LOAD86 Phases=1 Bus1=2319.1 kV=0.23 kW=1 PF=0.95
New Load.LOAD87 Phases=1 Bus1=2395.3 kV=0.23 kW=1 PF=0.95
New Load.LOAD88 Phases=1 Bus1=2496.1 kV=0.23 kW=1 PF=0.95
New Load.LOAD89 Phases=1 Bus1=2646.3 kV=0.23 kW=1 PF=0.95
New Load.LOAD90 Phases=1 Bus1=2706.2 kV=0.23 kW=1 PF=0.95
New Load.LOAD91 Phases=1 Bus1=2707.3 kV=0.23 kW=1 PF=0.95
New Load.LOAD92 Phases=1 Bus1=2745.2 kV=0.23 kW=1 PF=0.95
New Load.LOAD93 Phases=1 Bus1=2746.3 kV=0.23 kW=1 PF=0.95
New Load.LOAD94 Phases=1 Bus1=2756.3 kV=0.23 kW=1 PF=0.95
New Load.LOAD95 Phases=1 Bus1=2776.3 kV=0.23 kW=1 PF=0.95
New Load.LOAD96 Phases=1 Bus1=2869.2 kV=0.23 kW=1 PF=0.95
New Load.LOAD97 Phases=1 Bus1=2880.1 kV=0.23 kW=1 PF=0.95
New Load.LOAD98 Phases=1 Bus1=2881.2 kV=0.23 kW=1 PF=0.95
New Load.LOAD99 Phases=1 Bus1=2882.3 kV=0.23 kW=1 PF=0.95
New Load.LOAD100 Phases=1 Bus1=2883.1 kV=0.23 kW=1 PF=0.95
New Load.LOAD101 Phases=1 Bus1=2884.2 kV=0.23 kW=1 PF=0.95
New Load.LOAD102 Phases=1 Bus1=2885.3 kV=0.23 kW=1 PF=0.95
New Load.LOAD103 Phases=1 Bus1=2886.1 kV=0.23 kW=1 PF=0.95
New Load.LOAD104 Phases=1 Bus1=2887.2 kV=0.23 kW=1 PF=0.95
New Load.LOAD105 Phases=1 Bus1=2888.3 kV=0.23 kW=1 PF=0.95
New Load.LOAD106 Phases=1 Bus1=2889.1 kV=0.23 kW=1 PF=0.95
New Load.LOAD107 Phases=1 Bus1=2890.2 kV=0.23 kW=1 PF=0.95
New Load.LOAD108 Phases=1 Bus1=2891.3 kV=0.23 kW=1 PF=0.95
New Load.LOAD109 Phases=1 Bus1=2892.1 kV=0.23 kW=1 PF=0.95
New Load.LOAD110 Phases=1 Bus1=2893.2 kV=0.23 kW=1 PF=0.95
New Load.LOAD111 Phases=1 Bus1=2894.3 kV=0.23 kW=1 PF=0.95
New Load.LOAD112 Phases=1 Bus1=2895.1 kV=0.23 kW=1 PF=0.95
New Load.LOAD113 Phases=1 Bus1=2896.2 kV=0.23 kW=1 PF=0.95
New Load.LOAD114 Phases=1 Bus1=2897.3 kV=0.23 kW=1 PF=0.95
New Load.LOAD115 Phases=1 Bus1=2898.1 kV=0.23 kW=1 PF=0.95
New Load.LOAD116 Phases=1 Bus1=2899.2 kV=0.23 kW=1 PF=0.95
New Load.LOAD117 Phases=1 Bus1=2900.3 kV=0.23 kW=1 PF=0.95
New Load.LOAD118 Phases=1 Bus1=2901.1 kV=0.23 kW=1 PF=0.95
New Load.LOAD119 Phases=1 Bus1=2902.2 kV=0.23 kW=1 PF=0.95
New Load.LOAD120 Phases=1 Bus1=2903.3 kV=0.23 kW=1 PF=0.95
New Load.LOAD121 Phases=1 Bus1=2904.1 kV=0.23 kW=1 PF=0.95
New Load.LOAD122 Phases=1 Bus1=2905.2 kV=0.23 kW=1 PF=0.95
New Load.LOAD123 Phases=1 Bus1=2906.3 kV=0.23 kW=1 PF=0.95
New Load.LOAD124 Phases=1 Bus1=2907.1 kV=0.23 kW=1 PF=0.95
New Load.LOAD125 Phases=1 Bus1=2908.2 kV=0.23 kW=1 PF=0.95
New Load.LOAD126 Phases=1 Bus1=2909.3 kV=0.23 kW=1 PF=0.95
New Load.LOAD127 Phases=1 Bus1=2910.1 kV=0.23 kW=1 PF=0.95
New Load.LOAD128 Phases=1 Bus1=2911.2 kV=0.23 kW=1 PF=0.95
New Load.LOAD129 Phases=1 Bus1=2939.2 kV=0.23 kW=1 PF=0.95
New Load.LOAD130 Phases=1 Bus1=2940.2 kV=0.23 kW=1 PF=0.95
New Load.LOAD131 Phases=1 Bus1=3008.3 kV=0.23 kW=1 PF=0.95
New Load.LOAD132 Phases=1 Bus1=3035.1 kV=0.23 kW=1 PF=0.95
New Load.LOAD133 Phases=1 Bus1=3041.3 kV=0.23 kW=1 PF=0.95
New Load.LOAD134 Phases=1 Bus1=3092.3 kV=0.23 kW=1 PF=0.95
New Load.LOAD135 Phases=1 Bus1=3095.1 kV=0.23 kW=1 PF=0.95
New Load.LOAD136 Phases=1 Bus1=3169.3 kV=0.23 kW=1 PF=0.95
New Load.LOAD137 Phases=1 Bus1=3207.3 kV=0.23 kW=1 PF=0.95
New Load.LOAD138 Phases=1 Bus1=3210.2 kV=0.23 kW=1 PF=0.95
New Load.LOAD139 Phases=1 Bus1=3259.2 kV=0.23 kW=1 PF=0.95
New Load.LOAD140 Phases=1 Bus1=3288.3 kV=0.23 kW=1 PF=0.95
New Load.LOAD141 Phases=1 Bus1=3334.1 kV=0.23 kW=1 PF=0.95
New Load.LOAD142 Phases=1 Bus1=3399.1 kV=0.23 kW=1 PF=0.95
New Load.LOAD143 Phases=1 Bus1=3414.3 kV=0.23 kW=1 PF=0.95
New Load.LOAD144 Phases=1 Bus1=3421.1 kV=0.23 kW=1 PF=0.95
New Load.LOAD145 Phases=1 Bus1=3422.3 kV=0.23 kW=1 PF=0.95
New Load.LOAD146 Phases=1 Bus1=3426.1 kV=0.23 kW=1 PF=0.95
New Load.LOAD147 Phases=1 Bus1=3440.3 kV=0.23 kW=1 PF=0.95
New Load.LOAD148 Phases=1 Bus1=3441.1 kV=0.23 kW=1 PF=0.95
New Load.LOAD149 Phases=1 Bus1=3442.1 kV=0.23 kW=1 PF=0.95
New Load.LOAD150 Phases=1 Bus1=3456.3 kV=0.23 kW=1 PF=0.95
New Load.LOAD151 Phases=1 Bus1=3469.3 kV=0.23 kW=1 PF=0.95
New Load.LOAD152 Phases=1 Bus1=3481.2 kV=0.23 kW=1 PF=0.95
New Load.LOAD153 Phases=1 Bus1=3533.2 kV=0.23 kW=1 PF=0.95
New Load.LOAD154 Phases=1 Bus1=3534.2 kV=0.23 kW=1 PF=0.95
New Load.LOAD155 Phases=1 Bus1=3573.1 kV=0.23 kW=1 PF=0.95
New Load.LOAD156 Phases=1 Bus1=3607.3 kV=0.23 kW=1 PF=0.95
New Load.LOAD157 Phases=1 Bus1=3648.1 kV=0.23 kW=1 PF=0.95
New Load.LOAD158 Phases=1 Bus1=3725.2 kV=0.23 kW=1 PF=0.95
New Load.LOAD159 Phases=1 Bus1=3816.3 kV=0.23 kW=1 PF=0.95
New Load.LOAD160 Phases=1 Bus1=3825.1 kV=0.23 kW=1 PF=0.95
New Load.LOAD161 Phases=1 Bus1=3863.2 kV=0.23 kW=1 PF=0.95
New Load.LOAD162 Phases=1 Bus1=3920.2 kV=0.23 kW=1 PF=0.95
New Load.LOAD163 Phases=1 Bus1=3959.1 kV=0.23 kW=1 PF=0.95
New Load.LOAD164 Phases=1 Bus1=3979.2 kV=0.23 kW=1 PF=0.95
New Load.LOAD165 Phases=1 Bus1=3981.3 kV=0.23 kW=1 PF=0.95
New Load.LOAD166 Phases=1 Bus1=4023.2 kV=0.23 kW=1 PF=0.95
New Load.LOAD167 Phases=1 Bus1=4026.2 kV=0.23 kW=1 PF=0.95
New Load.LOAD168 Phases=1 Bus1=4039.3 kV=0.23 kW=1 PF=0.95
New Load.LOAD169 Phases=1 Bus1=4071.3 kV=0.23 kW=1 PF=0.95